Circuit: * H:\Documents\GitHub\team14\301folder-hiralabs\hardwaretask1schematic.asc

WARNING: Less than two connections to node VFG2.  This node is used by V3.
Direct Newton iteration for .op point succeeded.

Date: Wed Jul 26 13:26:13 2023
Total elapsed time: 0.082 seconds.

tnom = 27
temp = 27
method = modified trap
totiter = 2681
traniter = 2678
tranpoints = 1340
accept = 1290
rejected = 50
matrix size = 6
fillins = 0
solver = Normal
Matrix Compiler1:       9 opcodes  0.0/[0.0]/0.0
Matrix Compiler2: 320 bytes object code size  0.0/0.0/[0.0]

